Circuit: * Z:\home\hazen\work\ninjanirs-sipm\Sim\3014.asc

Direct Newton iteration for .op point succeeded.
Ignoring empty pin current: Ix(u1:3)
Ignoring empty pin current: Ix(u1:6)
Ignoring empty pin current: Ix(u1:7)
Ignoring empty pin current: Ix(u1:3)
Ignoring empty pin current: Ix(u1:6)
Ignoring empty pin current: Ix(u1:7)

Date: Wed May 07 15:48:50 2025
Total elapsed time: 0.149 seconds.

tnom = 27
temp = 27
method = modified trap
totiter = 2459
traniter = 2427
tranpoints = 1151
accept = 1133
rejected = 18
matrix size = 16
fillins = 7
solver = Normal
Matrix Compiler1:      93 opcodes  0.8/[0.4]/0.5
Matrix Compiler2: off
